$****************************************************************************
$ Hspice Netlist:
$ Block: /home/j/johngangemi/cmos05/DesignLib/Lab2B_NOR/schematic/sch.oa
$ Netlist Time: Sep 22 12:51:18 2014
$****************************************************************************


$****************************************************************************
$ GLOBAL Net Declarations
$****************************************************************************
.GLOBAL gnd vdd


$****************************************************************************
$ MODEL Declarations
$****************************************************************************
.model nmos nmos level=2 vto=0.7 gamma=0.2 kp=3e-05 lambda=0.02 tox=6e-07
.model pmos pmos level=2 vto=-0.7 gamma=0.4 kp=1.5e-05 lambda=0.03 tox=6e-07


$****************************************************************************
$ Main Circuit Netlist:
$
$ Block: Lab2B_NOR
$ Last Time Saved: Sep 22 12:50:04 2014
$****************************************************************************
mxm1 z b net07 vdd pmos w=2.70 l=0.60
mxm0 net07 a vdd vdd pmos w=2.70 l=0.60
mxm3 z b gnd gnd nmos w=1.20 l=0.60
mxm2 z a gnd gnd nmos w=1.20 l=0.60
