$****************************************************************************
$ Hspice Netlist:
$ Block: /home/j/johngangemi/cmos05/DesignLib/Lab2C_INV/extracted/layout.oa
$ Netlist Time: Sep 25 13:03:22 2014
$****************************************************************************


$****************************************************************************
$ MODEL Declarations
$****************************************************************************
.model nfet nmos level=2 vto=0.7 gamma=0.2 kp=3e-05 lambda=0.02 tox=6e-07
.model pfet pmos level=2 vto=-0.7 gamma=0.4 kp=1.5e-05 lambda=0.03 tox=6e-07


$****************************************************************************
$ Main Circuit Netlist:
$
$ Block: Lab2C_INV
$ Last Time Saved: Sep 25 13:00:39 2014
$****************************************************************************
mx1 vdd a z vdd pfet w=2.7 l=0.6 ad=4.05e-12 as=4.05e-12 pd=5.7e-06 ps=5.7e-06
cx5 a gnd 1.3392e-16
cx4 vdd a 1.3392e-16
cx3 gnd z 4.4736e-16
cx2 vdd z 4.4736e-16
mx0 gnd a z gnd nfet w=1.2 l=0.6 ad=1.8e-12 as=1.8e-12 pd=4.2e-06 ps=4.2e-06
